FoamFile
{
    version     2.0;
    format      ascii;
    class       dictionary;
    location    "system";
    object      demDict;
}

createDEMfile  "createDEM";
createDEMfunc  "createDEM";